test/TEST190523/v_h18.csv
Bus, BasekV, Node1, Magnitude1, Angle1, pu1, Node2, Magnitude2, Angle2, pu2, Node3, Magnitude3, Angle3, pu3
"SOURCEBUS", 69, 1,    41771.7,   -0.5,    1.0486, 2,    41749.6, -120.6,     1.048, 3,    41699.7,  119.5,    1.0468
"BUSMVMAI1", 12.8, 1,    7728.78,  -31.5,    1.0458, 2,    7734.17, -151.7,    1.0466, 3,     7702.3,   88.0,    1.0422
"BUSMVMAI136", 12.505, 1,    7728.73,  -31.5,    1.0705, 2,    7734.02, -151.7,    1.0712, 3,    7702.14,   88.0,    1.0668
"BUSMVMAI3", 12.505, 1,    7684.32,  -32.6,    1.0643, 2,    7612.89, -152.6,    1.0544, 3,    7582.41,   86.0,    1.0502
"BUSMVMAI2", 12.505, 1,     7684.2,  -32.6,    1.0643, 2,    7612.55, -152.6,    1.0544, 3,    7582.09,   86.0,    1.0502
"BUSMVMAI4", 12.505, 1,    7682.99,  -32.6,    1.0641, 2,    7609.15, -152.6,    1.0539, 3,    7578.84,   86.0,    1.0497
"BUSMVMAI46", 12.505, 1,    7684.37,  -32.6,    1.0643, 2,    7613.03, -152.6,    1.0544, 3,    7582.54,   86.0,    1.0502
"BUSMVMAI5", 12.505, 1,    7681.62,  -32.6,    1.0639, 2,    7605.75, -152.6,    1.0534, 3,    7575.59,   85.9,    1.0493
"BUSMVMAI862", 12.505, 1,    7682.97,  -32.6,    1.0641, 0, 0, 0, 0, 0, 0, 0, 0
"BUSMVMAI6", 12.505, 1,    7681.35,  -32.6,    1.0639, 2,    7605.12, -152.6,    1.0533, 3,       7575,   85.9,    1.0492
"BUSMVMAI859", 12.505, 3,    7575.55,   85.9,    1.0492, 0, 0, 0, 0, 0, 0, 0, 0
"BUSMVMAI860", 12.505, 3,    7575.59,   85.9,    1.0493, 0, 0, 0, 0, 0, 0, 0, 0
"BUSMVMAI7", 12.505, 1,     7679.7,  -32.7,    1.0637, 2,    7602.39, -152.7,     1.053, 3,    7572.12,   85.9,    1.0488
"BUSMVMAI8", 12.505, 1,    7679.71,  -32.7,    1.0637, 2,       7598, -152.7,    1.0524, 3,    7570.05,   85.8,    1.0485
"BUSMVMAI9", 12.505, 1,     7679.7,  -32.7,    1.0637, 2,    7602.39, -152.7,     1.053, 3,    7572.12,   85.9,    1.0488
"BUSMVMAI10", 12.505, 1,     7678.7,  -32.7,    1.0635, 2,    7602.42, -152.7,     1.053, 3,    7571.33,   85.9,    1.0487
"BUSMVMAI56", 12.505, 1,     7679.2,  -32.7,    1.0636, 2,    7602.41, -152.7,     1.053, 3,    7571.72,   85.9,    1.0487
"BUSMVMAI861", 12.505, 3,    7575.44,   85.9,    1.0492, 0, 0, 0, 0, 0, 0, 0, 0
"BUSMVMAI12", 12.505, 1,    7679.72,  -32.7,    1.0637, 2,    7594.43, -152.7,    1.0519, 3,    7568.38,   85.8,    1.0483
"BUSMVMAI51", 12.505, 1,    7679.71,  -32.7,    1.0637, 2,       7598, -152.7,    1.0524, 3,    7570.05,   85.8,    1.0485
"BUSMVMAI2171", 12.505, 1,    7679.71,  -32.7,    1.0637, 0, 0, 0, 0, 0, 0, 0, 0
"BUSMVMAI863", 12.505, 3,    7575.36,   85.9,    1.0492, 0, 0, 0, 0, 0, 0, 0, 0
"BUSMVMAI2165", 12.505, 3,    7572.12,   85.9,    1.0488, 0, 0, 0, 0, 0, 0, 0, 0
"BUSMVMAI694", 12.505, 1,     7679.7,  -32.7,    1.0637, 2,    7602.39, -152.7,     1.053, 3,    7572.11,   85.9,    1.0488
"BUSMVMAI122", 12.505, 1,    7678.65,  -32.7,    1.0635, 2,    7602.43, -152.7,     1.053, 3,    7571.29,   85.9,    1.0487
"BUSMVMAI11", 12.505, 1,    7679.72,  -32.7,    1.0637, 2,    7594.42, -152.7,    1.0519, 3,    7568.38,   85.8,    1.0483
"BUSMVMAI13", 12.505, 1,    7679.72,  -32.7,    1.0637, 2,    7594.38, -152.7,    1.0519, 3,    7568.39,   85.8,    1.0483
"BUSMVMAI18", 12.505, 1,    7679.74,  -32.7,    1.0637, 2,    7593.12, -152.7,    1.0517, 3,    7567.73,   85.8,    1.0482
"BUSMVMAI14", 12.505, 1,     7679.7,  -32.7,    1.0637, 2,    7594.28, -152.7,    1.0518, 3,    7568.41,   85.8,    1.0483
"BUSMVMAI15", 12.505, 1,    7679.69,  -32.7,    1.0637, 2,    7594.19, -152.7,    1.0518, 3,    7568.43,   85.8,    1.0483
"BUSMVMAI16", 12.505, 1,     7679.7,  -32.7,    1.0637, 2,    7594.18, -152.7,    1.0518, 3,    7568.41,   85.8,    1.0483
"BUSMVMAI2166", 12.505, 2,    7594.18, -152.7,    1.0518, 0, 0, 0, 0, 0, 0, 0, 0
"BUSMVMAI2172", 12.505, 1,    7682.95,  -32.6,    1.0641, 0, 0, 0, 0, 0, 0, 0, 0
"BUSMVMAI864", 12.505, 3,    7575.29,   85.9,    1.0492, 0, 0, 0, 0, 0, 0, 0, 0
"BUSMVMAI865", 12.505, 3,    7575.19,   85.9,    1.0492, 0, 0, 0, 0, 0, 0, 0, 0
"BUSMVMAI17", 12.505, 1,     7679.7,  -32.7,    1.0637, 2,    7594.18, -152.7,    1.0518, 3,    7568.41,   85.8,    1.0483
"BUSMVMAI695", 12.505, 1,     7679.7,  -32.7,    1.0637, 2,    7594.18, -152.7,    1.0518, 3,     7568.4,   85.8,    1.0483
"BUSMVMAI866", 12.505, 3,    7575.19,   85.9,    1.0492, 0, 0, 0, 0, 0, 0, 0, 0
"BUSMVMAI2176", 12.505, 3,    7575.19,   85.9,    1.0492, 0, 0, 0, 0, 0, 0, 0, 0
"BUSMVMAI2177", 12.505, 3,    7575.18,   85.9,    1.0492, 0, 0, 0, 0, 0, 0, 0, 0
"BUSMVMAI2178", 12.505, 3,    7575.12,   85.9,    1.0492, 0, 0, 0, 0, 0, 0, 0, 0
"BUSMVMAI19", 12.505, 1,    7679.79,  -32.7,    1.0637, 2,    7590.74, -152.7,    1.0513, 3,    7566.59,   85.7,     1.048
"BUSMVMAI20", 12.505, 1,    7679.85,  -32.7,    1.0637, 2,    7587.39, -152.7,    1.0509, 3,    7564.98,   85.7,    1.0478
"BUSMVMAI53", 12.505, 1,    7679.79,  -32.7,    1.0637, 2,    7590.74, -152.7,    1.0513, 3,    7566.59,   85.7,     1.048
"BUSMVMAI21", 12.505, 1,    7679.93,  -32.7,    1.0637, 2,    7583.88, -152.8,    1.0504, 3,     7563.3,   85.6,    1.0475
"BUSMVMAI22", 12.505, 1,    7680.01,  -32.7,    1.0637, 2,    7579.75, -152.8,    1.0498, 3,    7561.34,   85.6,    1.0473
"BUSMVMAI23", 12.505, 1,    7679.93,  -32.7,    1.0637, 2,    7583.88, -152.8,    1.0504, 3,    7563.29,   85.6,    1.0475
"BUSMVMAI25", 12.505, 1,    7680.09,  -32.7,    1.0637, 2,    7575.51, -152.8,    1.0492, 3,    7559.34,   85.5,     1.047
"BUSMVMAI52", 12.505, 1,    7680.01,  -32.7,    1.0637, 2,    7579.75, -152.8,    1.0498, 3,    7561.34,   85.6,    1.0473
"BUSMVMAI54", 12.505, 1,    7680.01,  -32.7,    1.0637, 2,    7579.75, -152.8,    1.0498, 3,    7561.34,   85.6,    1.0473
"BUSMVMAI55", 12.505, 1,    7680.01,  -32.7,    1.0637, 2,    7579.75, -152.8,    1.0498, 3,    7561.34,   85.6,    1.0473
"BUSMVMAI696", 12.505, 1,    7679.93,  -32.7,    1.0637, 2,    7583.88, -152.8,    1.0504, 3,    7563.29,   85.6,    1.0475
"BUSMVMAI24", 12.505, 1,     7680.1,  -32.7,    1.0637, 2,    7575.09, -152.8,    1.0492, 3,    7559.14,   85.5,     1.047
"BUSMVMAI26", 12.505, 1,    7680.17,  -32.7,    1.0637, 2,    7570.86, -152.8,    1.0486, 3,    7557.16,   85.5,    1.0467
"BUSMVMAI49", 12.505, 1,    7680.09,  -32.7,    1.0637, 2,    7575.51, -152.8,    1.0492, 3,    7559.34,   85.5,     1.047
"BUSMVMAI50", 12.505, 1,    7680.09,  -32.7,    1.0637, 2,    7575.51, -152.8,    1.0492, 3,    7559.33,   85.5,     1.047
"BUSMVMAI27", 12.505, 1,    7680.15,  -32.7,    1.0637, 2,    7570.87, -152.8,    1.0486, 3,    7557.14,   85.5,    1.0467
"BUSMVMAI28", 12.505, 1,    7680.25,  -32.7,    1.0637, 2,     7567.6, -152.8,    1.0481, 3,    7555.65,   85.4,    1.0465
"BUSMVMAI29", 12.505, 1,    7680.12,  -32.7,    1.0637, 2,    7570.89, -152.8,    1.0486, 3,    7557.13,   85.5,    1.0467
"BUSMVMAI31", 12.505, 1,    7680.34,  -32.7,    1.0638, 2,    7563.83, -152.9,    1.0476, 3,    7553.91,   85.4,    1.0462
"BUSMVMAI30", 12.505, 1,    7680.09,  -32.7,    1.0637, 2,    7570.91, -152.8,    1.0486, 3,    7557.12,   85.5,    1.0467
"BUSMVMAI34", 12.505, 1,    7680.06,  -32.7,    1.0637, 2,    7570.92, -152.8,    1.0486, 3,     7557.1,   85.5,    1.0467
"BUSMVMAI867", 12.505, 1,    7680.22,  -32.7,    1.0637, 0, 0, 0, 0, 0, 0, 0, 0
"BUSMVMAI43", 12.505, 1,    7680.34,  -32.7,    1.0638, 2,    7563.74, -152.9,    1.0476, 3,    7553.87,   85.4,    1.0462
"BUSMVMAI871", 12.505, 2,    7563.82, -152.9,    1.0476, 0, 0, 0, 0, 0, 0, 0, 0
"BUSMVMAI33", 12.505, 1,    7680.39,  -32.7,    1.0638, 2,    7562.64, -152.9,    1.0475, 3,    7553.39,   85.4,    1.0462
"BUSMVMAI32", 12.505, 1,    7680.53,  -32.7,    1.0638, 2,    7559.38, -152.9,     1.047, 3,    7551.97,   85.3,     1.046
"BUSMVMAI37", 12.505, 1,    7680.66,  -32.7,    1.0638, 2,    7554.91, -152.9,    1.0464, 3,    7550.06,   85.3,    1.0457
"BUSMVMAI44", 12.505, 1,    7680.34,  -32.7,    1.0638, 2,    7563.65, -152.9,    1.0476, 3,    7553.83,   85.4,    1.0462
"BUSMVMAI35", 12.505, 1,    7680.06,  -32.7,    1.0637, 2,    7570.93, -152.8,    1.0486, 3,     7557.1,   85.5,    1.0467
"BUSMVMAI36", 12.505, 1,    7680.06,  -32.7,    1.0637, 2,    7570.93, -152.8,    1.0486, 3,    7557.09,   85.5,    1.0467
"BUSMVMAI869", 12.505, 1,    7680.21,  -32.7,    1.0637, 0, 0, 0, 0, 0, 0, 0, 0
"BUSMVMAI38", 12.505, 1,    7680.79,  -32.8,    1.0638, 2,    7551.36, -152.9,    1.0459, 3,    7548.57,   85.2,    1.0455
"BUSMVMAI2181", 12.505, 1,    7680.64,  -32.7,    1.0638, 0, 0, 0, 0, 0, 0, 0, 0
"BUSMVMAI868", 12.505, 1,    7680.01,  -32.7,    1.0637, 0, 0, 0, 0, 0, 0, 0, 0
"BUSMVMAI870", 12.505, 1,     7679.8,  -32.7,    1.0637, 0, 0, 0, 0, 0, 0, 0, 0
"BUSMVMAI39", 12.505, 1,    7680.83,  -32.8,    1.0638, 2,    7551.34, -152.9,    1.0459, 3,    7548.49,   85.2,    1.0455
"BUSMVMAI40", 12.505, 1,    7680.85,  -32.8,    1.0638, 2,    7547.87, -153.0,    1.0454, 3,    7547.16,   85.2,    1.0453
"BUSMVMAI697", 12.505, 1,    7680.88,  -32.8,    1.0638, 2,    7551.36, -152.9,    1.0459, 3,    7548.27,   85.2,    1.0455
"BUSMVMAI41", 12.505, 1,    7680.94,  -32.8,    1.0638, 2,    7543.86, -153.0,    1.0449, 3,    7545.51,   85.1,    1.0451
"BUSMVMAI42", 12.505, 1,    7680.98,  -32.8,    1.0638, 2,    7543.83, -153.0,    1.0449, 3,    7545.46,   85.1,    1.0451
"BUSMVMAI48", 12.505, 1,    7680.96,  -32.8,    1.0638, 2,    7540.53, -153.0,    1.0444, 3,    7544.18,   85.1,    1.0449
"BUSMVMAI303", 12.505, 1,    7680.95,  -32.8,    1.0638, 2,    7542.19, -153.0,    1.0446, 3,    7544.84,   85.1,     1.045
"BUSMVMAI45", 12.505, 1,    7680.99,  -32.8,    1.0638, 2,    7543.82, -153.0,    1.0449, 3,    7545.43,   85.1,    1.0451
"BUSMVMAI701", 12.505, 1,       7681,  -32.8,    1.0638, 2,    7543.83, -153.0,    1.0449, 3,     7545.4,   85.1,    1.0451
"BUSMVMAI47", 12.505, 1,    7684.91,  -32.6,    1.0644, 2,    7614.53, -152.6,    1.0546, 3,    7583.98,   86.0,    1.0504
"BUSMVMAI179", 12.505, 1,    7684.64,  -32.6,    1.0644, 2,    7613.78, -152.6,    1.0545, 3,    7583.26,   86.0,    1.0503
"BUSMVMAI160", 12.505, 1,    7686.19,  -32.5,    1.0646, 2,    7618.12, -152.5,    1.0551, 3,    7587.42,   86.1,    1.0509
"BUSMVMAI1103", 12.505, 1,     7680.8,  -32.8,    1.0638, 0, 0, 0, 0, 0, 0, 0, 0
"BUSMVMAI259", 12.505, 1,    7681.08,  -32.8,    1.0639, 2,    7538.79, -153.0,    1.0442, 3,     7543.6,   85.1,    1.0448
"BUSMVMAI304", 12.505, 1,    7680.96,  -32.8,    1.0638, 2,    7540.53, -153.0,    1.0444, 3,    7544.18,   85.1,    1.0449
"BUSMVMAI702", 12.505, 1,    7680.09,  -32.7,    1.0637, 2,    7575.51, -152.8,    1.0492, 3,    7559.33,   85.5,     1.047
"BUSMVMAI58", 12.505, 1,    7678.01,  -32.7,    1.0634, 2,    7602.45, -152.7,     1.053, 3,    7570.78,   85.9,    1.0486
"BUSMVMAI57", 12.505, 1,    7675.66,  -32.7,    1.0631, 2,    7602.54, -152.7,     1.053, 3,    7568.92,   85.9,    1.0483
"BUSMVMAI60", 12.505, 1,    7674.68,  -32.7,     1.063, 2,    7602.58, -152.7,     1.053, 3,    7568.15,   85.9,    1.0482
"BUSMVMAI703", 12.505, 1,    7675.67,  -32.7,    1.0631, 2,    7602.54, -152.7,     1.053, 3,     7568.9,   85.9,    1.0483
"BUSMVMAI123", 12.505, 1,    7678.59,  -32.7,    1.0635, 2,    7602.43, -152.7,     1.053, 3,    7571.24,   85.9,    1.0486
"BUSMVMAI59", 12.505, 1,    7673.25,  -32.7,    1.0628, 2,    7602.71, -152.7,     1.053, 3,    7567.35,   85.9,    1.0481
"BUSMVMAI61", 12.505, 1,    7670.87,  -32.7,    1.0624, 2,    7602.94, -152.7,     1.053, 3,    7566.01,   85.9,    1.0479
"BUSMVMAI63", 12.505, 1,    7674.76,  -32.7,     1.063, 2,    7602.52, -152.7,     1.053, 3,    7568.02,   85.9,    1.0482
"BUSMVMAI874", 12.505, 3,    7568.15,   85.9,    1.0482, 0, 0, 0, 0, 0, 0, 0, 0
"BUSMVMAI62", 12.505, 1,    7668.53,  -32.8,    1.0621, 2,    7603.07, -152.7,    1.0531, 3,    7564.67,   85.9,    1.0477
"BUSMVMAI64", 12.505, 1,    7665.95,  -32.8,    1.0618, 2,    7603.33, -152.7,    1.0531, 3,    7563.66,   85.9,    1.0476
"BUSMVMAI942", 12.505, 3,    7564.66,   85.9,    1.0477, 0, 0, 0, 0, 0, 0, 0, 0
"BUSMVMAI873", 12.505, 3,    7564.65,   85.9,    1.0477, 0, 0, 0, 0, 0, 0, 0, 0
"BUSMVMAI872", 12.505, 3,    7564.11,   85.9,    1.0477, 0, 0, 0, 0, 0, 0, 0, 0
"BUSMVMAI880", 12.505, 3,     7564.1,   85.9,    1.0477, 0, 0, 0, 0, 0, 0, 0, 0
"BUSMVMAI945", 12.505, 3,    7567.99,   85.9,    1.0482, 0, 0, 0, 0, 0, 0, 0, 0
"BUSMVMAI65", 12.505, 1,     7663.2,  -32.8,    1.0614, 2,    7603.53, -152.7,    1.0531, 3,    7562.56,   85.9,    1.0474
"BUSMVMAI66", 12.505, 1,    7660.42,  -32.8,     1.061, 2,    7603.73, -152.7,    1.0531, 3,    7561.46,   85.9,    1.0473
"BUSMVMAI67", 12.505, 1,    7657.42,  -32.8,    1.0606, 2,    7603.95, -152.7,    1.0532, 3,    7560.27,   85.9,    1.0471
"BUSMVMAI878", 12.505, 1,    7657.22,  -32.8,    1.0606, 0, 0, 0, 0, 0, 0, 0, 0
"BUSMVMAI68", 12.505, 1,    7655.26,  -32.8,    1.0603, 2,       7604, -152.7,    1.0532, 3,    7559.41,   85.9,     1.047
"BUSMVMAI706", 12.505, 1,    7657.42,  -32.8,    1.0606, 2,    7603.95, -152.7,    1.0532, 3,    7560.26,   85.9,    1.0471
"BUSMVMAI876", 12.505, 3,    7567.97,   85.9,    1.0482, 0, 0, 0, 0, 0, 0, 0, 0
"BUSMVMAI875", 12.505, 3,    7567.48,   85.9,    1.0481, 0, 0, 0, 0, 0, 0, 0, 0
"BUSMVMAI877", 12.505, 3,    7567.31,   85.9,    1.0481, 0, 0, 0, 0, 0, 0, 0, 0
"BUSMVMAI883", 12.505, 3,    7566.93,   85.8,    1.0481, 0, 0, 0, 0, 0, 0, 0, 0
"BUSMVMAI884", 12.505, 3,    7567.29,   85.9,    1.0481, 0, 0, 0, 0, 0, 0, 0, 0
"BUSMVMAI886", 12.505, 3,    7567.29,   85.9,    1.0481, 0, 0, 0, 0, 0, 0, 0, 0
"BUSMVMAI885", 12.505, 1,    7656.93,  -32.8,    1.0605, 0, 0, 0, 0, 0, 0, 0, 0
"BUSMVMAI879", 12.505, 3,    7563.34,   85.8,    1.0476, 0, 0, 0, 0, 0, 0, 0, 0
"BUSMVMAI881", 12.505, 3,    7563.23,   85.8,    1.0475, 0, 0, 0, 0, 0, 0, 0, 0
"BUSMVMAI888", 12.505, 3,    7563.22,   85.8,    1.0475, 0, 0, 0, 0, 0, 0, 0, 0
"BUSMVMAI882", 12.505, 3,    7563.13,   85.8,    1.0475, 0, 0, 0, 0, 0, 0, 0, 0
"BUSMVMAI944", 12.505, 3,    7563.13,   85.8,    1.0475, 0, 0, 0, 0, 0, 0, 0, 0
"BUSMVMAI889", 12.505, 3,     7566.6,   85.8,     1.048, 0, 0, 0, 0, 0, 0, 0, 0
"BUSMVMAI2183", 12.505, 3,    7567.28,   85.9,    1.0481, 0, 0, 0, 0, 0, 0, 0, 0
"BUSMVMAI2184", 12.505, 3,    7567.27,   85.9,    1.0481, 0, 0, 0, 0, 0, 0, 0, 0
"BUSMVMAI71", 12.505, 1,    7653.16,  -32.9,      1.06, 2,    7604.01, -152.7,    1.0532, 3,    7558.58,   85.9,    1.0469
"BUSMVMAI2182", 12.505, 1,     7656.9,  -32.8,    1.0605, 0, 0, 0, 0, 0, 0, 0, 0
"BUSMVMAI2185", 12.505, 1,    7656.91,  -32.8,    1.0605, 0, 0, 0, 0, 0, 0, 0, 0
"BUSMVMAI2186", 12.505, 1,    7656.74,  -32.8,    1.0605, 0, 0, 0, 0, 0, 0, 0, 0
"BUSMVMAI887", 12.505, 3,    7567.23,   85.9,    1.0481, 0, 0, 0, 0, 0, 0, 0, 0
"BUSMVMAI892", 12.505, 3,     7567.2,   85.8,    1.0481, 0, 0, 0, 0, 0, 0, 0, 0
"BUSMVMAI897", 12.505, 3,    7563.07,   85.8,    1.0475, 0, 0, 0, 0, 0, 0, 0, 0
"BUSMVMAI890", 12.505, 3,     7566.3,   85.8,     1.048, 0, 0, 0, 0, 0, 0, 0, 0
"BUSMVMAI891", 12.505, 3,    7566.09,   85.8,    1.0479, 0, 0, 0, 0, 0, 0, 0, 0
"BUSMVMAI896", 12.505, 3,    7566.01,   85.8,    1.0479, 0, 0, 0, 0, 0, 0, 0, 0
"BUSMVMAI893", 12.505, 3,    7567.16,   85.8,    1.0481, 0, 0, 0, 0, 0, 0, 0, 0
"BUSMVMAI894", 12.505, 3,    7567.12,   85.8,    1.0481, 0, 0, 0, 0, 0, 0, 0, 0
"BUSMVMAI895", 12.505, 3,    7567.12,   85.8,    1.0481, 0, 0, 0, 0, 0, 0, 0, 0
"BUSMVMAI898", 12.505, 3,    7567.12,   85.8,    1.0481, 0, 0, 0, 0, 0, 0, 0, 0
"BUSMVMAI70", 12.505, 1,    7657.43,  -32.8,    1.0606, 2,    7603.96, -152.7,    1.0532, 3,    7560.22,   85.9,    1.0471
"BUSMVMAI69", 12.505, 1,    7657.43,  -32.8,    1.0606, 2,    7603.96, -152.7,    1.0532, 3,    7560.22,   85.9,    1.0471
"BUSMVMAI708", 12.505, 1,    7657.43,  -32.8,    1.0606, 2,    7603.96, -152.7,    1.0532, 3,    7560.23,   85.9,    1.0471
"BUSMVMAI72", 12.505, 1,     7650.4,  -32.9,    1.0596, 2,    7604.03, -152.7,    1.0532, 3,    7557.48,   85.9,    1.0467
"BUSMVMAI73", 12.505, 1,    7647.78,  -32.9,    1.0592, 2,    7604.07, -152.7,    1.0532, 3,    7556.55,   85.9,    1.0466
"BUSMVMAI134", 12.505, 1,     7650.4,  -32.9,    1.0596, 2,    7604.03, -152.7,    1.0532, 3,    7557.48,   85.9,    1.0467
"BUSMVMAI900", 12.505, 3,    7562.91,   85.8,    1.0475, 0, 0, 0, 0, 0, 0, 0, 0
"BUSMVMAI904", 12.505, 3,    7567.11,   85.8,    1.0481, 0, 0, 0, 0, 0, 0, 0, 0
"BUSMVMAI75", 12.505, 1,     7646.5,  -32.9,    1.0591, 2,    7604.19, -152.7,    1.0532, 3,    7556.06,   85.9,    1.0465
"BUSMVMAI718", 12.505, 1,    7647.78,  -32.9,    1.0592, 2,    7604.07, -152.7,    1.0532, 3,    7556.55,   85.9,    1.0466
"BUSMVMAI899", 12.505, 3,    7562.91,   85.8,    1.0475, 0, 0, 0, 0, 0, 0, 0, 0
"BUSMVMAI902", 12.505, 3,    7562.83,   85.8,    1.0475, 0, 0, 0, 0, 0, 0, 0, 0
"BUSMVMAI901", 12.505, 3,    7562.76,   85.8,    1.0475, 0, 0, 0, 0, 0, 0, 0, 0
"BUSMVMAI903", 12.505, 3,    7562.64,   85.8,    1.0475, 0, 0, 0, 0, 0, 0, 0, 0
"BUSMVMAI905", 12.505, 3,     7562.5,   85.8,    1.0474, 0, 0, 0, 0, 0, 0, 0, 0
"BUSMVMAI907", 12.505, 3,    7562.64,   85.8,    1.0475, 0, 0, 0, 0, 0, 0, 0, 0
"BUSMVMAI906", 12.505, 3,     7562.5,   85.8,    1.0474, 0, 0, 0, 0, 0, 0, 0, 0
"BUSMVMAI946", 12.505, 3,     7562.5,   85.8,    1.0474, 0, 0, 0, 0, 0, 0, 0, 0
"BUSMVMAI74", 12.505, 1,     7646.5,  -32.9,    1.0591, 2,    7604.19, -152.7,    1.0532, 3,    7556.06,   85.9,    1.0465
"BUSMVMAI76", 12.505, 1,    7646.28,  -32.9,     1.059, 2,    7604.36, -152.7,    1.0532, 3,    7555.93,   85.9,    1.0465
"BUSMVMAI77", 12.505, 1,    7645.75,  -32.9,     1.059, 2,    7604.16, -152.7,    1.0532, 3,    7555.81,   85.9,    1.0465
"BUSMVMAI79", 12.505, 1,    7646.26,  -32.9,     1.059, 2,    7604.37, -152.7,    1.0532, 3,    7555.92,   85.9,    1.0465
"BUSMVMAI81", 12.505, 1,    7645.69,  -32.9,     1.059, 2,    7603.93, -152.7,    1.0532, 3,    7555.91,   85.9,    1.0465
"BUSMVMAI91", 12.505, 1,    7643.87,  -32.9,    1.0587, 2,     7604.3, -152.7,    1.0532, 3,    7555.04,   85.9,    1.0464
"BUSMVMAI78", 12.505, 1,    7645.87,  -32.9,     1.059, 2,    7604.65, -152.7,    1.0533, 3,    7555.67,   85.9,    1.0465
"BUSMVMAI80", 12.505, 1,    7645.49,  -32.9,    1.0589, 2,    7604.94, -152.7,    1.0533, 3,    7555.42,   85.9,    1.0465
"BUSMVMAI908", 12.505, 1,    7645.21,  -32.9,    1.0589, 0, 0, 0, 0, 0, 0, 0, 0
"BUSMVMAI89", 12.505, 1,    7645.41,  -32.9,    1.0589, 2,       7605, -152.7,    1.0533, 3,    7555.32,   85.9,    1.0464
"BUSMVMAI949", 12.505, 3,    7562.64,   85.8,    1.0475, 0, 0, 0, 0, 0, 0, 0, 0
"BUSMVMAI82", 12.505, 1,    7645.64,  -32.9,     1.059, 2,    7603.75, -152.7,    1.0532, 3,    7555.99,   85.9,    1.0465
"BUSMVMAI83", 12.505, 1,    7645.64,  -32.9,     1.059, 2,     7603.7, -152.7,    1.0531, 3,    7555.98,   85.9,    1.0465
"BUSMVMAI86", 12.505, 1,    7645.65,  -32.9,     1.059, 2,    7603.64, -152.7,    1.0531, 3,    7555.97,   85.9,    1.0465
"BUSMVMAI85", 12.505, 1,    7647.74,  -32.9,    1.0592, 2,    7603.87, -152.7,    1.0532, 3,    7556.53,   85.9,    1.0466
"BUSMVMAI84", 12.505, 1,    7647.63,  -32.9,    1.0592, 2,    7603.69, -152.7,    1.0531, 3,    7556.56,   85.9,    1.0466
"BUSMVMAI93", 12.505, 1,    7647.56,  -32.9,    1.0592, 2,    7603.59, -152.7,    1.0531, 3,    7556.58,   85.9,    1.0466
"BUSMVMAI2198", 12.505, 2,    7603.69, -152.7,    1.0531, 0, 0, 0, 0, 0, 0, 0, 0
"BUSMVMAI709", 12.505, 1,    7647.77,  -32.9,    1.0592, 2,    7604.06, -152.7,    1.0532, 3,    7556.55,   85.9,    1.0466
"BUSMVMAI88", 12.505, 1,    7645.66,  -32.9,     1.059, 2,    7603.59, -152.7,    1.0531, 3,    7555.96,   85.9,    1.0465
"BUSMVMAI87", 12.505, 1,    7645.66,  -32.9,     1.059, 2,    7603.54, -152.7,    1.0531, 3,    7555.95,   85.9,    1.0465
"BUSMVMAI99", 12.505, 1,    7645.65,  -32.9,     1.059, 2,    7603.51, -152.7,    1.0531, 3,    7555.96,   85.9,    1.0465
"BUSMVMAI722", 12.505, 1,    7645.67,  -32.9,     1.059, 2,    7603.55, -152.7,    1.0531, 3,    7555.94,   85.9,    1.0465
"BUSMVMAI909", 12.505, 1,    7644.94,  -32.9,    1.0589, 0, 0, 0, 0, 0, 0, 0, 0
"BUSMVMAI90", 12.505, 1,    7645.39,  -32.9,    1.0589, 2,    7605.02, -152.7,    1.0533, 3,    7555.21,   85.9,    1.0464
"BUSMVMAI102", 12.505, 1,    7645.37,  -32.9,    1.0589, 2,    7605.05, -152.7,    1.0533, 3,     7555.1,   85.9,    1.0464
"BUSMVMAI92", 12.505, 1,    7642.23,  -32.9,    1.0585, 2,    7604.43, -152.7,    1.0532, 3,    7554.38,   85.9,    1.0463
"BUSMVMAI132", 12.505, 1,    7643.87,  -32.9,    1.0587, 2,     7604.3, -152.7,    1.0532, 3,    7555.04,   85.9,    1.0464
"BUSMVMAI98", 12.505, 1,    7642.23,  -32.9,    1.0585, 2,    7604.43, -152.7,    1.0532, 3,    7554.38,   85.9,    1.0463
"BUSMVMAI100", 12.505, 1,    7640.17,  -33.0,    1.0582, 2,    7604.78, -152.7,    1.0533, 3,    7553.43,   85.9,    1.0462
"BUSMVMAI723", 12.505, 1,    7642.24,  -32.9,    1.0585, 2,    7604.41, -152.7,    1.0532, 3,    7554.38,   85.9,    1.0463
"BUSMVMAI96", 12.505, 1,     7647.5,  -32.9,    1.0592, 2,    7603.48, -152.7,    1.0531, 3,     7556.6,   85.9,    1.0466
"BUSMVMAI916", 12.505, 1,    7647.56,  -32.9,    1.0592, 0, 0, 0, 0, 0, 0, 0, 0
"BUSMVMAI95", 12.505, 1,    7642.24,  -32.9,    1.0585, 2,    7604.28, -152.7,    1.0532, 3,     7554.4,   85.9,    1.0463
"BUSMVMAI94", 12.505, 1,    7642.19,  -32.9,    1.0585, 2,    7604.13, -152.7,    1.0532, 3,    7554.48,   85.9,    1.0463
"BUSMVMAI112", 12.505, 1,    7642.19,  -32.9,    1.0585, 2,    7604.13, -152.7,    1.0532, 3,    7554.47,   85.9,    1.0463
"BUSMVMAI126", 12.505, 1,    7642.24,  -32.9,    1.0585, 2,    7604.28, -152.7,    1.0532, 3,     7554.4,   85.9,    1.0463
"BUSMVMAI97", 12.505, 1,    7647.41,  -32.9,    1.0592, 2,    7603.32, -152.7,    1.0531, 3,    7556.63,   85.9,    1.0466
"BUSMVMAI711", 12.505, 1,     7647.5,  -32.9,    1.0592, 2,    7603.48, -152.7,    1.0531, 3,     7556.6,   85.9,    1.0466
"BUSMVMAI915", 12.505, 1,    7647.41,  -32.9,    1.0592, 0, 0, 0, 0, 0, 0, 0, 0
...
"BUSLVMAI1", 0.20785, 1,    125.866,   85.9,    1.0489, 2,    125.882,  -94.1,     1.049, 0, 0, 0, 0
"BUSLVMAI2", 0.20785, 1,    125.573,   85.6,    1.0464, 2,    125.586,  -94.4,    1.0466, 0, 0, 0, 0
"BUSLVMAI3", 0.20785, 1,    125.811,   85.9,    1.0484, 2,    125.827,  -94.1,    1.0486, 0, 0, 0, 0
"BUSLVMAI4", 0.20785, 1,    126.362,  -33.3,     1.053, 2,    126.539,  146.7,    1.0545, 0, 0, 0, 0
"BUSLVMAI5", 0.20785, 1,    124.911, -153.2,    1.0409, 2,    125.032,   26.8,    1.0419, 0, 0, 0, 0
"BUSLVMAI6", 0.20785, 1,    125.564,   85.5,    1.0464, 2,    125.579,  -94.5,    1.0465, 0, 0, 0, 0
"BUSLVMAI7", 0.20785, 1,    125.871,   85.9,    1.0489, 2,    125.885,  -94.1,     1.049, 0, 0, 0, 0
"BUSLVMAI8", 0.20785, 1,    124.971,   85.6,    1.0414, 2,     124.99,  -94.4,    1.0416, 0, 0, 0, 0
"BUSLVMAI9", 0.20785, 1,    124.874,   84.9,    1.0406, 2,    124.887,  -95.1,    1.0407, 0, 0, 0, 0
"BUSLVMAI10", 0.20785, 1,    124.831,   84.9,    1.0403, 2,    124.844,  -95.1,    1.0404, 0, 0, 0, 0
"BUSLVMAI11", 0.20785, 1,    126.087, -152.7,    1.0507, 2,      126.1,   27.2,    1.0508, 0, 0, 0, 0
"BUSLVMAI12", 0.20785, 1,     126.06, -152.8,    1.0505, 2,    126.075,   27.2,    1.0506, 0, 0, 0, 0
"BUSLVMAI13", 0.20785, 1,     127.54,  -32.7,    1.0628, 2,    127.555,  147.3,     1.063, 0, 0, 0, 0
"BUSLVMAI14", 0.20785, 1,    127.447,  -32.8,    1.0621, 2,    127.462,  147.2,    1.0622, 0, 0, 0, 0
"BUSLVMAI15", 0.20785, 1,    127.555,  -32.7,     1.063, 2,    127.568,  147.3,    1.0631, 0, 0, 0, 0
"BUSLVMAI16", 0.20785, 1,    125.816,   85.9,    1.0485, 2,    125.833,  -94.1,    1.0486, 0, 0, 0, 0
"BUSLVMAI17", 0.20785, 1,    123.866,   84.8,    1.0322, 2,    123.902,  -95.2,    1.0325, 0, 0, 0, 0
"BUSLVMAI18", 0.20785, 1,    125.667,   85.6,    1.0472, 2,    125.682,  -94.4,    1.0474, 0, 0, 0, 0
"BUSLVMAI19", 0.20785, 1,    125.592,   85.7,    1.0466, 2,    125.605,  -94.3,    1.0467, 0, 0, 0, 0
"BUSLVMAI20", 0.20785, 1,    125.664, -152.8,    1.0472, 2,    125.706,   27.2,    1.0476, 0, 0, 0, 0
"BUSLVMAI21", 0.20785, 1,    125.867,   85.9,    1.0489, 2,    125.883,  -94.1,     1.049, 0, 0, 0, 0
"BUSLVMAI22", 0.20785, 1,    127.228,  -32.9,    1.0602, 2,    127.418,  147.2,    1.0618, 0, 0, 0, 0
"BUSLVMAI23", 0.20785, 1,    125.753,   85.8,    1.0479, 2,    125.768,  -94.2,    1.0481, 0, 0, 0, 0
"BUSLVMAI24", 0.20785, 1,    125.815,   85.9,    1.0485, 2,     125.83,  -94.1,    1.0486, 0, 0, 0, 0
"BUSLVMAI25", 0.20785, 1,    125.693,   85.8,    1.0474, 2,    125.708,  -94.2,    1.0476, 0, 0, 0, 0
"BUSLVMAI26", 0.20785, 1,    125.976, -152.8,    1.0498, 2,    125.991,   27.2,    1.0499, 0, 0, 0, 0
"BUSLVMAI27", 0.20785, 1,    126.185, -152.7,    1.0515, 2,    126.201,   27.3,    1.0517, 0, 0, 0, 0
"BUSLVMAI28", 0.20785, 1,    125.667,   85.6,    1.0472, 2,    125.682,  -94.4,    1.0474, 0, 0, 0, 0
"BUSLVMAI29", 0.20785, 1,     124.84,   84.9,    1.0403, 2,    124.856,  -95.1,    1.0405, 0, 0, 0, 0
"BUSLVMAI30", 0.20785, 1,    125.682, -152.9,    1.0473, 2,    125.696,   27.1,    1.0475, 0, 0, 0, 0
"BUSLVMAI31", 0.20785, 1,    125.814,   85.9,    1.0484, 2,    125.829,  -94.1,    1.0486, 0, 0, 0, 0
"BUSLVMAI32", 0.20785, 1,     127.12,  -32.9,    1.0593, 2,    127.133,  147.1,    1.0594, 0, 0, 0, 0
"BUSLVMAI33", 0.20785, 1,    125.609,   85.5,    1.0467, 2,    125.622,  -94.5,    1.0468, 0, 0, 0, 0
"BUSLVMAI34", 0.20785, 1,    123.737,   85.4,    1.0311, 2,    123.895,  -94.6,    1.0325, 0, 0, 0, 0
"BUSLVMAI35", 0.20785, 1,    125.667,   85.8,    1.0472, 2,    125.681,  -94.2,    1.0473, 0, 0, 0, 0
"BUSLVMAI36", 0.20785, 1,    125.662,   85.8,    1.0472, 2,    125.676,  -94.2,    1.0473, 0, 0, 0, 0
"BUSLVMAI37", 0.20785, 1,    125.626,   85.8,    1.0469, 2,    125.642,  -94.2,     1.047, 0, 0, 0, 0
"BUSLVMAI38", 0.20785, 1,    119.723, -154.3,    0.9977, 2,     119.74,   25.7,   0.99783, 0, 0, 0, 0
"BUSLVMAI39", 0.20785, 1,    125.898, -153.0,    1.0491, 2,    125.911,   27.0,    1.0493, 0, 0, 0, 0
"BUSLVMAI40", 0.20785, 1,    124.953,   85.5,    1.0413, 2,    125.061,  -94.5,    1.0422, 0, 0, 0, 0
"BUSLVMAI41", 0.20785, 1,    127.035,  -32.9,    1.0586, 2,    127.051,  147.1,    1.0588, 0, 0, 0, 0
"BUSLVMAI42", 0.20785, 1,    127.095,  -32.9,    1.0591, 2,    127.111,  147.1,    1.0593, 0, 0, 0, 0
"BUSLVMAI43", 0.20785, 1,    126.959,  -33.0,     1.058, 2,    126.974,  147.0,    1.0581, 0, 0, 0, 0
"BUSLVMAI44", 0.20785, 1,    125.247,   85.7,    1.0437, 2,    125.347,  -94.3,    1.0446, 0, 0, 0, 0
"BUSLVMAI45", 0.20785, 1,    125.431,   85.8,    1.0453, 2,    125.445,  -94.2,    1.0454, 0, 0, 0, 0
"BUSLVMAI46", 0.20785, 1,    125.556,   85.9,    1.0463, 2,    125.571,  -94.1,    1.0464, 0, 0, 0, 0
"BUSLVMAI47", 0.20785, 1,    125.672,   85.9,    1.0473, 2,    125.686,  -94.2,    1.0474, 0, 0, 0, 0
"BUSLVMAI48", 0.20785, 1,    124.673,   85.4,    1.0389, 2,    124.702,  -94.6,    1.0392, 0, 0, 0, 0
"BUSLVMAI49", 0.20785, 1,    127.067,  -32.9,    1.0589, 2,    127.082,  147.1,     1.059, 0, 0, 0, 0
"BUSLVMAI50", 0.20785, 1,    122.988, -153.8,    1.0249, 2,    123.291,   26.2,    1.0274, 0, 0, 0, 0
"BUSLVMAI51", 0.20785, 1,    125.757,  -33.4,     1.048, 2,    125.773,  146.6,    1.0481, 0, 0, 0, 0
"BUSLVMAI52", 0.20785, 1,    125.688,   85.9,    1.0474, 2,    125.701,  -94.1,    1.0475, 0, 0, 0, 0
"BUSLVMAI53", 0.20785, 1,    125.661,   85.9,    1.0472, 2,    125.676,  -94.2,    1.0473, 0, 0, 0, 0
"BUSLVMAI54", 0.20785, 1,    123.618,   85.1,    1.0302, 2,    123.634,  -94.9,    1.0303, 0, 0, 0, 0
"BUSLVMAI55", 0.20785, 1,    127.039,  -32.9,    1.0587, 2,    127.055,  147.1,    1.0588, 0, 0, 0, 0
"BUSLVMAI56", 0.20785, 1,    125.208,   85.7,    1.0434, 2,    125.221,  -94.3,    1.0435, 0, 0, 0, 0
"BUSLVMAI57", 0.20785, 1,    125.519,   85.9,     1.046, 2,    125.534,  -94.1,    1.0461, 0, 0, 0, 0
"BUSLVMAI58", 0.20785, 1,    125.686,   85.9,    1.0474, 2,      125.7,  -94.1,    1.0475, 0, 0, 0, 0
"BUSLVMAI59", 0.20785, 1,    127.067,  -32.9,    1.0589, 2,    127.082,  147.1,     1.059, 0, 0, 0, 0
"BUSLVMAI60", 0.20785, 1,    126.688,  -33.1,    1.0557, 2,    126.701,  146.9,    1.0558, 0, 0, 0, 0
"BUSLVMAI61", 0.20785, 1,    125.406,  -33.7,    1.0451, 2,    125.424,  146.3,    1.0452, 0, 0, 0, 0
"BUSLVMAI62", 0.20785, 1,     126.05, -152.9,    1.0504, 2,    126.064,   27.1,    1.0505, 0, 0, 0, 0
"BUSLVMAI63", 0.20785, 1,    126.625,  -33.1,    1.0552, 2,    126.663,  146.9,    1.0555, 0, 0, 0, 0
"BUSLVMAI64", 0.20785, 1,    125.901, -152.9,    1.0492, 2,    125.914,   27.0,    1.0493, 0, 0, 0, 0
"BUSLVMAI65", 0.20785, 1,    127.026,  -32.9,    1.0586, 2,     127.04,  147.1,    1.0587, 0, 0, 0, 0
"BUSLVMAI66", 0.20785, 1,    125.664,   85.8,    1.0472, 2,    125.678,  -94.2,    1.0473, 0, 0, 0, 0
"BUSLVMAI67", 0.20785, 1,    126.232,  -33.2,    1.0519, 2,    126.248,  146.8,    1.0521, 0, 0, 0, 0
"BUSLVMAI68", 0.20785, 1,    126.486,  -33.2,     1.054, 2,    126.499,  146.8,    1.0542, 0, 0, 0, 0
"BUSLVMAI69", 0.20785, 1,    125.671,   85.9,    1.0473, 2,    125.684,  -94.2,    1.0474, 0, 0, 0, 0
"BUSLVMAI70", 0.20785, 1,    124.657,   85.4,    1.0388, 2,    124.748,  -94.6,    1.0396, 0, 0, 0, 0
"BUSLVMAI71", 0.20785, 1,    126.198,  -33.3,    1.0517, 2,    126.212,  146.7,    1.0518, 0, 0, 0, 0
"BUSLVMAI72", 0.20785, 1,    126.743,  -33.1,    1.0562, 2,    126.756,  146.9,    1.0563, 0, 0, 0, 0
"BUSLVMAI73", 0.20785, 1,     126.67,  -33.1,    1.0556, 2,    126.683,  146.9,    1.0557, 0, 0, 0, 0
"BUSLVMAI74", 0.20785, 1,    127.064,  -32.9,    1.0589, 2,     127.08,  147.1,     1.059, 0, 0, 0, 0
"BUSLVMAI75", 0.20785, 1,     125.54, -153.1,    1.0462, 2,    125.554,   26.9,    1.0463, 0, 0, 0, 0
"BUSLVMAI76", 0.20785, 1,    125.661,   85.8,    1.0472, 2,    125.674,  -94.2,    1.0473, 0, 0, 0, 0
"BUSLVMAI77", 0.20785, 1,    126.511,  -33.1,    1.0543, 2,    126.525,  146.9,    1.0544, 0, 0, 0, 0
"BUSLVMAI78", 0.20785, 1,    126.939,  -33.0,    1.0578, 2,    126.952,  147.0,    1.0579, 0, 0, 0, 0
"BUSLVMAI79", 0.20785, 1,    125.526,   85.9,    1.0461, 2,     125.54,  -94.1,    1.0462, 0, 0, 0, 0
"BUSLVMAI80", 0.20785, 1,     124.02,   85.1,    1.0335, 2,    124.091,  -94.9,    1.0341, 0, 0, 0, 0
"BUSLVMAI81", 0.20785, 1,    125.662,   85.8,    1.0472, 2,    125.676,  -94.2,    1.0473, 0, 0, 0, 0
"BUSLVMAI82", 0.20785, 1,    125.138,   85.7,    1.0428, 2,    125.153,  -94.4,    1.0429, 0, 0, 0, 0
"BUSLVMAI83", 0.20785, 1,    126.217,  -33.3,    1.0518, 2,    126.238,  146.7,     1.052, 0, 0, 0, 0
"BUSLVMAI84", 0.20785, 1,    125.104,   85.7,    1.0425, 2,    125.118,  -94.4,    1.0426, 0, 0, 0, 0
"BUSLVMAI85", 0.20785, 1,    126.088, -152.9,    1.0507, 2,    126.114,   27.1,    1.0509, 0, 0, 0, 0
"BUSLVMAI86", 0.20785, 1,    126.361,  -33.2,     1.053, 2,    126.419,  146.8,    1.0535, 0, 0, 0, 0
"BUSLVMAI87", 0.20785, 1,    127.021,  -32.9,    1.0585, 2,    127.062,  147.1,    1.0588, 0, 0, 0, 0
"BUSLVMAI88", 0.20785, 1,    125.738,   85.9,    1.0478, 2,    125.751,  -94.2,    1.0479, 0, 0, 0, 0
"BUSLVMAI89", 0.20785, 1,    125.661,   85.8,    1.0472, 2,    125.674,  -94.2,    1.0473, 0, 0, 0, 0
"BUSLVMAI90", 0.20785, 1,    124.575,   85.5,    1.0381, 2,     124.59,  -94.5,    1.0383, 0, 0, 0, 0
"BUSLVMAI91", 0.20785, 1,    125.567,   85.8,    1.0464, 2,    125.583,  -94.2,    1.0465, 0, 0, 0, 0
"BUSLVMAI92", 0.20785, 1,    126.387,  -33.2,    1.0532, 2,    126.419,  146.8,    1.0535, 0, 0, 0, 0
"BUSLVMAI93", 0.20785, 1,    125.359,   85.8,    1.0447, 2,    125.375,  -94.2,    1.0448, 0, 0, 0, 0
"BUSLVMAI94", 0.20785, 1,    124.806,   85.4,      1.04, 2,     124.82,  -94.6,    1.0402, 0, 0, 0, 0
"BUSLVMAI95", 0.20785, 1,    125.519,   85.9,     1.046, 2,    125.535,  -94.1,    1.0461, 0, 0, 0, 0
"BUSLVMAI96", 0.20785, 1,    125.682,   85.8,    1.0474, 2,    125.696,  -94.2,    1.0475, 0, 0, 0, 0
"BUSLVMAI97", 0.20785, 1,    126.338, -152.7,    1.0528, 2,    126.353,   27.3,    1.0529, 0, 0, 0, 0
"BUSLVMAI98", 0.20785, 1,    126.338, -152.7,    1.0528, 2,    126.353,   27.3,    1.0529, 0, 0, 0, 0
"BUSLVMAI99", 0.20785, 1,    125.645,   85.8,     1.047, 2,    125.659,  -94.2,    1.0472, 0, 0, 0, 0
"BUSLVMAI100", 0.20785, 1,    125.666,   85.8,    1.0472, 2,     125.68,  -94.2,    1.0473, 0, 0, 0, 0
"BUSLVMAI101", 0.20785, 1,    125.517,   85.9,     1.046, 2,    125.533,  -94.1,    1.0461, 0, 0, 0, 0
"BUSLVMAI102", 0.20785, 1,    125.662,   85.9,    1.0472, 2,    125.678,  -94.2,    1.0473, 0, 0, 0, 0
"BUSLVMAI103", 0.20785, 1,    125.418,   85.8,    1.0452, 2,    125.433,  -94.2,    1.0453, 0, 0, 0, 0
"BUSLVMAI104", 0.20785, 1,    125.312,   85.8,    1.0443, 2,    125.326,  -94.2,    1.0444, 0, 0, 0, 0
"BUSLVMAI105", 0.20785, 1,    124.913,   85.6,    1.0409, 2,    124.927,  -94.4,    1.0411, 0, 0, 0, 0
"BUSLVMAI106", 0.20785, 1,    126.986,  -32.9,    1.0582, 2,    126.999,  147.1,    1.0583, 0, 0, 0, 0
"BUSLVMAI107", 0.20785, 1,     125.67,   85.9,    1.0473, 2,    125.684,  -94.2,    1.0474, 0, 0, 0, 0
"BUSLVMAI108", 0.20785, 1,    125.533,   85.9,    1.0461, 2,    125.547,  -94.1,    1.0462, 0, 0, 0, 0
"BUSLVMAI109", 0.20785, 1,    126.132,  -33.3,    1.0511, 2,    126.194,  146.7,    1.0516, 0, 0, 0, 0
"BUSLVMAI110", 0.20785, 1,    126.276,  -33.3,    1.0523, 2,    126.308,  146.7,    1.0526, 0, 0, 0, 0
"BUSLVMAI111", 0.20785, 1,    126.577,  -33.1,    1.0548, 2,    126.593,  146.9,    1.0549, 0, 0, 0, 0
"BUSLVMAI112", 0.20785, 1,    126.828,  -33.0,    1.0569, 2,    126.844,  147.0,     1.057, 0, 0, 0, 0
"BUSLVMAI113", 0.20785, 1,    126.265, -152.8,    1.0522, 2,     126.28,   27.2,    1.0523, 0, 0, 0, 0
"BUSLVMAI114", 0.20785, 1,    125.107,  -33.7,    1.0426, 2,    125.122,  146.3,    1.0427, 0, 0, 0, 0
"BUSLVMAI115", 0.20785, 1,    126.576,  -33.1,    1.0548, 2,    126.589,  146.9,    1.0549, 0, 0, 0, 0
"BUSLVMAI116", 0.20785, 1,     125.44,   85.9,    1.0453, 2,    125.453,  -94.1,    1.0454, 0, 0, 0, 0
"BUSLVMAI117", 0.20785, 1,    125.646,  -33.6,     1.047, 2,    125.697,  146.4,    1.0475, 0, 0, 0, 0
"BUSLVMAI118", 0.20785, 1,    126.279,  -33.2,    1.0523, 2,    126.294,  146.8,    1.0525, 0, 0, 0, 0
"BUSLVMAI119", 0.20785, 1,    124.922,   85.6,     1.041, 2,    124.935,  -94.4,    1.0411, 0, 0, 0, 0
"BUSLVMAI120", 0.20785, 1,    126.575,  -33.1,    1.0548, 2,    126.589,  146.9,    1.0549, 0, 0, 0, 0
"BUSLVMAI121", 0.20785, 1,    126.426, -152.7,    1.0535, 2,    126.442,   27.2,    1.0537, 0, 0, 0, 0
"BUSLVMAI122", 0.20785, 1,    125.422,   85.9,    1.0452, 2,    125.438,  -94.1,    1.0453, 0, 0, 0, 0
"BUSLVMAI123", 0.20785, 1,    126.422, -152.8,    1.0535, 2,    126.436,   27.2,    1.0536, 0, 0, 0, 0
"BUSLVMAI124", 0.20785, 1,    124.357,   85.3,    1.0363, 2,    124.405,  -94.7,    1.0367, 0, 0, 0, 0
"BUSLVMAI125", 0.20785, 1,     124.72,   85.7,    1.0393, 2,    124.738,  -94.3,    1.0395, 0, 0, 0, 0
"BUSLVMAI126", 0.20785, 1,    126.434, -152.8,    1.0536, 2,    126.448,   27.2,    1.0537, 0, 0, 0, 0
"BUSLVMAI127", 0.20785, 1,    125.419,   85.9,    1.0452, 2,    125.433,  -94.1,    1.0453, 0, 0, 0, 0
"BUSLVMAI128", 0.20785, 1,    124.807, -153.4,    1.0401, 2,    124.829,   26.5,    1.0402, 0, 0, 0, 0
"BUSLVMAI129", 0.20785, 1,    126.575,  -33.1,    1.0548, 2,    126.588,  146.9,    1.0549, 0, 0, 0, 0
"BUSLVMAI130", 0.20785, 1,    126.849,  -33.0,    1.0571, 2,    126.865,  147.0,    1.0572, 0, 0, 0, 0
"BUSLVMAI131", 0.20785, 1,    125.035,  -33.6,     1.042, 2,     125.07,  146.4,    1.0422, 0, 0, 0, 0
"BUSLVMAI132", 0.20785, 1,     126.57,  -33.1,    1.0548, 2,    126.583,  146.9,    1.0549, 0, 0, 0, 0
"BUSLVMAI133", 0.20785, 1,    125.464,   85.9,    1.0455, 2,    125.481,  -94.1,    1.0457, 0, 0, 0, 0
"BUSLVMAI134", 0.20785, 1,    125.143,   85.7,    1.0429, 2,    125.159,  -94.3,     1.043, 0, 0, 0, 0
"BUSLVMAI135", 0.20785, 1,    125.368,   85.8,    1.0447, 2,    125.384,  -94.2,    1.0449, 0, 0, 0, 0
"BUSLVMAI136", 0.20785, 1,    125.899,  -33.5,    1.0492, 2,    125.971,  146.5,    1.0498, 0, 0, 0, 0
"BUSLVMAI137", 0.20785, 1,    125.972, -152.9,    1.0498, 2,    125.985,   27.1,    1.0499, 0, 0, 0, 0
"BUSLVMAI138", 0.20785, 1,    126.088, -152.9,    1.0507, 2,    126.154,   27.1,    1.0513, 0, 0, 0, 0
"BUSLVMAI139", 0.20785, 1,    125.554, -153.1,    1.0463, 2,    125.572,   26.9,    1.0464, 0, 0, 0, 0
"BUSLVMAI140", 0.20785, 1,    125.784,  -33.4,    1.0482, 2,      125.8,  146.6,    1.0483, 0, 0, 0, 0
"BUSLVMAI141", 0.20785, 1,    126.435, -152.8,    1.0536, 2,    126.449,   27.2,    1.0537, 0, 0, 0, 0
"BUSLVMAI142", 0.20785, 1,    125.562, -153.1,    1.0464, 2,    125.576,   26.9,    1.0465, 0, 0, 0, 0
"BUSLVMAI143", 0.20785, 1,    126.155, -152.8,    1.0513, 2,     126.17,   27.2,    1.0514, 0, 0, 0, 0
"BUSLVMAI144", 0.20785, 1,    125.425,   85.9,    1.0452, 2,     125.44,  -94.1,    1.0453, 0, 0, 0, 0
"BUSLVMAI145", 0.20785, 1,    126.747,  -33.0,    1.0562, 2,    126.763,  146.9,    1.0564, 0, 0, 0, 0
"BUSLVMAI146", 0.20785, 1,     126.41, -152.8,    1.0534, 2,    126.424,   27.2,    1.0535, 0, 0, 0, 0
"BUSLVMAI147", 0.20785, 1,    125.378,  -33.7,    1.0448, 2,    125.395,  146.3,     1.045, 0, 0, 0, 0
"BUSLVMAI148", 0.20785, 1,    125.348,   85.9,    1.0446, 2,    125.363,  -94.1,    1.0447, 0, 0, 0, 0
"BUSLVMAI149", 0.20785, 1,    125.712, -153.1,    1.0476, 2,    125.725,   26.9,    1.0477, 0, 0, 0, 0
"BUSLVMAI150", 0.20785, 1,    125.617,  -33.6,    1.0468, 2,    125.641,  146.4,     1.047, 0, 0, 0, 0
"BUSLVMAI151", 0.20785, 1,    125.561, -153.1,    1.0463, 2,    125.573,   26.9,    1.0464, 0, 0, 0, 0
"BUSLVMAI152", 0.20785, 1,    126.562,  -33.1,    1.0547, 2,    126.578,  146.9,    1.0548, 0, 0, 0, 0
"BUSLVMAI153", 0.20785, 1,    124.171,   85.4,    1.0348, 2,    124.186,  -94.6,    1.0349, 0, 0, 0, 0
"BUSLVMAI154", 0.20785, 1,    125.453,   85.9,    1.0454, 2,    125.469,  -94.1,    1.0456, 0, 0, 0, 0
"BUSLVMAI155", 0.20785, 1,    125.488,  -33.7,    1.0457, 2,    125.502,  146.3,    1.0458, 0, 0, 0, 0
"BUSLVMAI156", 0.20785, 1,    126.587,  -33.1,    1.0549, 2,      126.6,  146.9,     1.055, 0, 0, 0, 0
"BUSLVMAI157", 0.20785, 1,    124.723,  -33.8,    1.0394, 2,    124.739,  146.2,    1.0395, 0, 0, 0, 0
"BUSLVMAI158", 0.20785, 1,     126.29, -152.8,    1.0524, 2,    126.303,   27.2,    1.0525, 0, 0, 0, 0
"BUSLVMAI159", 0.20785, 1,    126.292, -152.8,    1.0524, 2,    126.305,   27.2,    1.0525, 0, 0, 0, 0
"BUSLVMAI160", 0.20785, 1,    126.379,  -33.2,    1.0532, 2,    126.398,  146.8,    1.0533, 0, 0, 0, 0
"BUSLVMAI161", 0.20785, 1,      125.8,  -33.5,    1.0483, 2,      125.9,  146.5,    1.0492, 0, 0, 0, 0
"BUSLVMAI162", 0.20785, 1,    126.376,  -33.2,    1.0531, 2,    126.392,  146.8,    1.0533, 0, 0, 0, 0
"BUSLVMAI163", 0.20785, 1,    126.562,  -33.1,    1.0547, 2,    126.578,  146.9,    1.0548, 0, 0, 0, 0
"BUSLVMAI164", 0.20785, 1,    126.939,  -33.0,    1.0578, 2,    126.952,  147.0,    1.0579, 0, 0, 0, 0
"BUSLVMAI165", 0.20785, 1,    125.089,  -33.6,    1.0424, 2,    125.276,  146.4,     1.044, 0, 0, 0, 0
"BUSLVMAI166", 0.20785, 1,    126.166,  -33.3,    1.0514, 2,    126.237,  146.7,     1.052, 0, 0, 0, 0
"BUSLVMAI167", 0.20785, 1,    124.596,   85.4,    1.0383, 2,    124.627,  -94.6,    1.0386, 0, 0, 0, 0
"BUSLVMAI168", 0.20785, 1,    125.088,   85.7,    1.0424, 2,    125.101,  -94.3,    1.0425, 0, 0, 0, 0
"BUSLVMAI169", 0.20785, 1,    123.527,  -33.7,    1.0294, 2,    123.544,  146.2,    1.0295, 0, 0, 0, 0
"BUSLVMAI170", 0.20785, 1,    126.569,  -33.1,    1.0547, 2,    126.583,  146.9,    1.0549, 0, 0, 0, 0
"BUSLVMAI171", 0.20785, 1,    125.656,  -33.4,    1.0471, 2,    125.771,  146.6,    1.0481, 0, 0, 0, 0
"BUSLVMAI172", 0.20785, 1,    124.866,   85.6,    1.0406, 2,     124.88,  -94.4,    1.0407, 0, 0, 0, 0
"BUSLVMAI173", 0.20785, 1,    125.419,   85.9,    1.0452, 2,    125.435,  -94.1,    1.0453, 0, 0, 0, 0
"BUSLVMAI174", 0.20785, 1,    125.684,  -33.4,    1.0474, 2,     125.76,  146.6,     1.048, 0, 0, 0, 0
"BUSLVMAI175", 0.20785, 1,     125.53,  -33.6,    1.0461, 2,    125.544,  146.4,    1.0462, 0, 0, 0, 0
"BUSLVMAI176", 0.20785, 1,    125.055,   85.7,    1.0421, 2,    125.068,  -94.3,    1.0422, 0, 0, 0, 0
"BUSLVMAI177", 0.20785, 1,    125.273,   85.8,    1.0439, 2,    125.285,  -94.2,     1.044, 0, 0, 0, 0
"BUSLVMAI178", 0.20785, 1,    126.332, -152.8,    1.0528, 2,    126.345,   27.2,    1.0529, 0, 0, 0, 0
"BUSLVMAI179", 0.20785, 1,    125.959, -152.9,    1.0497, 2,    125.972,   27.1,    1.0498, 0, 0, 0, 0
"BUSLVMAI180", 0.20785, 1,    126.587,  -33.1,    1.0549, 2,      126.6,  146.9,     1.055, 0, 0, 0, 0
"BUSLVMAI181", 0.20785, 1,    126.566,  -33.1,    1.0547, 2,     126.58,  146.9,    1.0548, 0, 0, 0, 0
"BUSLVMAI182", 0.20785, 1,    125.646,  -33.5,     1.047, 2,    125.758,  146.5,     1.048, 0, 0, 0, 0
"BUSLVMAI183", 0.20785, 1,    125.291,   85.8,    1.0441, 2,    125.305,  -94.2,    1.0442, 0, 0, 0, 0
"BUSLVMAI184", 0.20785, 1,    126.885,  -33.0,    1.0574, 2,    126.898,  147.0,    1.0575, 0, 0, 0, 0
"BUSLVMAI185", 0.20785, 1,    125.792, -153.0,    1.0483, 2,    125.805,   27.0,    1.0484, 0, 0, 0, 0
"BUSLVMAI186", 0.20785, 1,     125.46,   85.9,    1.0455, 2,    125.475,  -94.1,    1.0456, 0, 0, 0, 0
"BUSLVMAI187", 0.20785, 1,    125.251,   85.8,    1.0438, 2,    125.263,  -94.2,    1.0439, 0, 0, 0, 0
"BUSLVMAI188", 0.20785, 1,    126.322, -152.7,    1.0527, 2,    126.337,   27.2,    1.0528, 0, 0, 0, 0
"BUSLVMAI189", 0.20785, 1,    126.582,  -33.1,    1.0548, 2,    126.598,  146.9,     1.055, 0, 0, 0, 0
"BUSLVMAI190", 0.20785, 1,    126.303, -152.7,    1.0525, 2,    126.319,   27.2,    1.0527, 0, 0, 0, 0
"BUSLVMAI191", 0.20785, 1,    125.453,   85.9,    1.0454, 2,    125.469,  -94.1,    1.0456, 0, 0, 0, 0
"BUSLVMAI192", 0.20785, 1,    126.558,  -33.1,    1.0546, 2,    126.574,  146.9,    1.0548, 0, 0, 0, 0
"BUSLVMAI193", 0.20785, 1,    126.573,  -33.1,    1.0548, 2,    126.589,  146.9,    1.0549, 0, 0, 0, 0
"BUSLVMAI194", 0.20785, 1,    125.349,   85.9,    1.0446, 2,    125.364,  -94.1,    1.0447, 0, 0, 0, 0
"BUSLVMAI195", 0.20785, 1,    125.455,   85.9,    1.0455, 2,    125.471,  -94.1,    1.0456, 0, 0, 0, 0
"BUSLVMAI196", 0.20785, 1,    126.263, -152.8,    1.0522, 2,    126.278,   27.2,    1.0523, 0, 0, 0, 0
"BUSLVMAI197", 0.20785, 1,    125.986, -152.9,    1.0499, 2,        126,   27.1,      1.05, 0, 0, 0, 0
"BUSLVMAI198", 0.20785, 1,    126.261, -152.8,    1.0522, 2,    126.276,   27.2,    1.0523, 0, 0, 0, 0
"BUSLVMAI199", 0.20785, 1,    126.262, -152.8,    1.0522, 2,    126.278,   27.2,    1.0523, 0, 0, 0, 0
"BUSLVMAI200", 0.20785, 1,    126.559,  -33.1,    1.0547, 2,    126.575,  146.9,    1.0548, 0, 0, 0, 0
...
